/*--------------------------------*- C++ -*----------------------------------*\
| =========                 |                                                 |
| \\      /  F ield         | OpenFOAM: The Open Source CFD Toolbox           |
|  \\    /   O peration     | Version:  v2006                                 |
|   \\  /    A nd           | Website:  www.openfoam.com                      |
|    \\/     M anipulation  |                                                 |
\*---------------------------------------------------------------------------*/
FoamFile
{
    version     2.0;
    format      ascii;
    class       polyBoundaryMesh;
    location    "constant/polyMesh";
    object      boundary;
}
// * * * * * * * * * * * * * * * * * * * * * * * * * * * * * * * * * * * * * //

6
(
    inlet
    {
        type            patch;
        nFaces          66;
        startFace       20059;
    }
    outlet
    {
        type            patch;
        nFaces          56;
        startFace       20125;
    }
    bottom
    {
        type            symmetryPlane;
        inGroups        1(symmetryPlane);
        nFaces          35;
        startFace       20181;
    }
    top
    {
        type            symmetryPlane;
        inGroups        1(symmetryPlane);
        nFaces          175;
        startFace       20216;
    }
    obstacle
    {
        type            patch;
        nFaces          150;
        startFace       20391;
    }
    defaultFaces
    {
        type            empty;
        inGroups        1(empty);
        nFaces          20300;
        startFace       20541;
    }
)

// ************************************************************************* //
